/*--------------------------------*- C++ -*----------------------------------*\
| =========                 |                                                 |
| \\      /  F ield         | OpenFOAM: The Open Source CFD Toolbox           |
|  \\    /   O peration     | Version:  v2012                                 |
|   \\  /    A nd           | Website:  www.openfoam.com                      |
|    \\/     M anipulation  |                                                 |
\*---------------------------------------------------------------------------*/
FoamFile
{
    version     2.0;
    format      ascii;
    class       polyBoundaryMesh;
    location    "constant/polyMesh";
    object      boundary;
}
// * * * * * * * * * * * * * * * * * * * * * * * * * * * * * * * * * * * * * //

6
(
    inlet
    {
        type            patch;
        nFaces          0;
        startFace       96413;
    }
    outlet
    {
        type            patch;
        nFaces          792;
        startFace       96413;
    }
    wall
    {
        type            wall;
        inGroups        1(wall);
        nFaces          3379;
        startFace       97205;
    }
    constraint
    {
        type            symmetry;
        inGroups        1(symmetry);
        nFaces          1849;
        startFace       100584;
    }
    defaultFaces
    {
        type            patch;
        nFaces          0;
        startFace       102433;
    }
    procBoundary1to0
    {
        type            processor;
        inGroups        1(processor);
        nFaces          846;
        startFace       102433;
        matchTolerance  0.0001;
        transform       unknown;
        myProcNo        1;
        neighbProcNo    0;
    }
)

// ************************************************************************* //
