/*--------------------------------*- C++ -*----------------------------------*\
| =========                 |                                                 |
| \\      /  F ield         | OpenFOAM: The Open Source CFD Toolbox           |
|  \\    /   O peration     | Version:  v2012                                 |
|   \\  /    A nd           | Website:  www.openfoam.com                      |
|    \\/     M anipulation  |                                                 |
\*---------------------------------------------------------------------------*/
FoamFile
{
    version     2.0;
    format      ascii;
    class       polyBoundaryMesh;
    location    "constant/polyMesh";
    object      boundary;
}
// * * * * * * * * * * * * * * * * * * * * * * * * * * * * * * * * * * * * * //

7
(
    inlet
    {
        type            patch;
        nFaces          779;
        startFace       218985;
    }
    outlet
    {
        type            patch;
        nFaces          0;
        startFace       219764;
    }
    wall
    {
        type            wall;
        inGroups        1(wall);
        nFaces          3255;
        startFace       219764;
    }
    constraint
    {
        type            symmetry;
        inGroups        1(symmetry);
        nFaces          1053;
        startFace       223019;
    }
    defaultFaces
    {
        type            patch;
        nFaces          12496;
        startFace       224072;
    }
    procBoundary3to1
    {
        type            processor;
        inGroups        1(processor);
        nFaces          826;
        startFace       236568;
        matchTolerance  0.0001;
        transform       unknown;
        myProcNo        3;
        neighbProcNo    1;
    }
    procBoundary3to2
    {
        type            processor;
        inGroups        1(processor);
        nFaces          1862;
        startFace       237394;
        matchTolerance  0.0001;
        transform       unknown;
        myProcNo        3;
        neighbProcNo    2;
    }
)

// ************************************************************************* //
