/*--------------------------------*- C++ -*----------------------------------*\
| =========                 |                                                 |
| \\      /  F ield         | OpenFOAM: The Open Source CFD Toolbox           |
|  \\    /   O peration     | Version:  v2012                                 |
|   \\  /    A nd           | Website:  www.openfoam.com                      |
|    \\/     M anipulation  |                                                 |
\*---------------------------------------------------------------------------*/
FoamFile
{
    version     2.0;
    format      ascii;
    class       polyBoundaryMesh;
    location    "constant/polyMesh";
    object      boundary;
}
// * * * * * * * * * * * * * * * * * * * * * * * * * * * * * * * * * * * * * //

7
(
    inlet
    {
        type            patch;
        nFaces          272;
        startFace       56892;
    }
    outlet
    {
        type            patch;
        nFaces          0;
        startFace       57164;
    }
    wall
    {
        type            wall;
        inGroups        1(wall);
        nFaces          1118;
        startFace       57164;
    }
    constraint
    {
        type            symmetry;
        inGroups        1(symmetry);
        nFaces          693;
        startFace       58282;
    }
    defaultFaces
    {
        type            patch;
        nFaces          3330;
        startFace       58975;
    }
    procBoundary3to1
    {
        type            processor;
        inGroups        1(processor);
        nFaces          479;
        startFace       62305;
        matchTolerance  0.0001;
        transform       unknown;
        myProcNo        3;
        neighbProcNo    1;
    }
    procBoundary3to2
    {
        type            processor;
        inGroups        1(processor);
        nFaces          811;
        startFace       62784;
        matchTolerance  0.0001;
        transform       unknown;
        myProcNo        3;
        neighbProcNo    2;
    }
)

// ************************************************************************* //
