/*--------------------------------*- C++ -*----------------------------------*\
| =========                 |                                                 |
| \\      /  F ield         | OpenFOAM: The Open Source CFD Toolbox           |
|  \\    /   O peration     | Version:  v2012                                 |
|   \\  /    A nd           | Website:  www.openfoam.com                      |
|    \\/     M anipulation  |                                                 |
\*---------------------------------------------------------------------------*/
FoamFile
{
    version     2.0;
    format      ascii;
    class       polyBoundaryMesh;
    location    "constant/polyMesh";
    object      boundary;
}
// * * * * * * * * * * * * * * * * * * * * * * * * * * * * * * * * * * * * * //

8
(
    inlet
    {
        type            patch;
        nFaces          0;
        startFace       677247;
    }
    outlet
    {
        type            patch;
        nFaces          0;
        startFace       677247;
    }
    wall
    {
        type            wall;
        inGroups        1(wall);
        nFaces          9266;
        startFace       677247;
    }
    constraint
    {
        type            symmetry;
        inGroups        1(symmetry);
        nFaces          5140;
        startFace       686513;
    }
    defaultFaces
    {
        type            patch;
        nFaces          13290;
        startFace       691653;
    }
    procBoundary3to0
    {
        type            processor;
        inGroups        1(processor);
        nFaces          1795;
        startFace       704943;
        matchTolerance  0.0001;
        transform       unknown;
        myProcNo        3;
        neighbProcNo    0;
    }
    procBoundary3to1
    {
        type            processor;
        inGroups        1(processor);
        nFaces          3476;
        startFace       706738;
        matchTolerance  0.0001;
        transform       unknown;
        myProcNo        3;
        neighbProcNo    1;
    }
    procBoundary3to2
    {
        type            processor;
        inGroups        1(processor);
        nFaces          3809;
        startFace       710214;
        matchTolerance  0.0001;
        transform       unknown;
        myProcNo        3;
        neighbProcNo    2;
    }
)

// ************************************************************************* //
