/*--------------------------------*- C++ -*----------------------------------*\
| =========                 |                                                 |
| \\      /  F ield         | OpenFOAM: The Open Source CFD Toolbox           |
|  \\    /   O peration     | Version:  v2012                                 |
|   \\  /    A nd           | Website:  www.openfoam.com                      |
|    \\/     M anipulation  |                                                 |
\*---------------------------------------------------------------------------*/
FoamFile
{
    version     2.0;
    format      ascii;
    class       polyBoundaryMesh;
    location    "constant/polyMesh";
    object      boundary;
}
// * * * * * * * * * * * * * * * * * * * * * * * * * * * * * * * * * * * * * //

6
(
    inlet
    {
        type            patch;
        nFaces          0;
        startFace       56627;
    }
    outlet
    {
        type            patch;
        nFaces          576;
        startFace       56627;
    }
    wall
    {
        type            wall;
        inGroups        1(wall);
        nFaces          2317;
        startFace       57203;
    }
    constraint
    {
        type            symmetry;
        inGroups        1(symmetry);
        nFaces          1229;
        startFace       59520;
    }
    defaultFaces
    {
        type            patch;
        nFaces          0;
        startFace       60749;
    }
    procBoundary0to1
    {
        type            processor;
        inGroups        1(processor);
        nFaces          608;
        startFace       60749;
        matchTolerance  0.0001;
        transform       unknown;
        myProcNo        0;
        neighbProcNo    1;
    }
)

// ************************************************************************* //
