/*--------------------------------*- C++ -*----------------------------------*\
| =========                 |                                                 |
| \\      /  F ield         | OpenFOAM: The Open Source CFD Toolbox           |
|  \\    /   O peration     | Version:  v2012                                 |
|   \\  /    A nd           | Website:  www.openfoam.com                      |
|    \\/     M anipulation  |                                                 |
\*---------------------------------------------------------------------------*/
FoamFile
{
    version     2.0;
    format      ascii;
    class       polyBoundaryMesh;
    location    "constant/polyMesh";
    object      boundary;
}
// * * * * * * * * * * * * * * * * * * * * * * * * * * * * * * * * * * * * * //

7
(
    inlet
    {
        type            patch;
        nFaces          304;
        startFace       56280;
    }
    outlet
    {
        type            patch;
        nFaces          0;
        startFace       56584;
    }
    wall
    {
        type            wall;
        inGroups        1(wall);
        nFaces          1389;
        startFace       56584;
    }
    constraint
    {
        type            symmetry;
        inGroups        1(symmetry);
        nFaces          434;
        startFace       57973;
    }
    defaultFaces
    {
        type            patch;
        nFaces          3825;
        startFace       58407;
    }
    procBoundary2to1
    {
        type            processor;
        inGroups        1(processor);
        nFaces          318;
        startFace       62232;
        matchTolerance  0.0001;
        transform       unknown;
        myProcNo        2;
        neighbProcNo    1;
    }
    procBoundary2to3
    {
        type            processor;
        inGroups        1(processor);
        nFaces          811;
        startFace       62550;
        matchTolerance  0.0001;
        transform       unknown;
        myProcNo        2;
        neighbProcNo    3;
    }
)

// ************************************************************************* //
