/*--------------------------------*- C++ -*----------------------------------*\
| =========                 |                                                 |
| \\      /  F ield         | OpenFOAM: The Open Source CFD Toolbox           |
|  \\    /   O peration     | Version:  v2012                                 |
|   \\  /    A nd           | Website:  www.openfoam.com                      |
|    \\/     M anipulation  |                                                 |
\*---------------------------------------------------------------------------*/
FoamFile
{
    version     2.0;
    format      ascii;
    class       polyBoundaryMesh;
    location    "constant/polyMesh";
    object      boundary;
}
// * * * * * * * * * * * * * * * * * * * * * * * * * * * * * * * * * * * * * //

7
(
    inlet
    {
        type            patch;
        nFaces          0;
        startFace       43855;
    }
    outlet
    {
        type            patch;
        nFaces          0;
        startFace       43855;
    }
    wall
    {
        type            wall;
        inGroups        1(wall);
        nFaces          669;
        startFace       43855;
    }
    constraint
    {
        type            symmetry;
        inGroups        1(symmetry);
        nFaces          312;
        startFace       44524;
    }
    defaultFaces
    {
        type            patch;
        nFaces          3965;
        startFace       44836;
    }
    procBoundary0to1
    {
        type            processor;
        inGroups        1(processor);
        nFaces          735;
        startFace       48801;
        matchTolerance  0.0001;
        transform       unknown;
        myProcNo        0;
        neighbProcNo    1;
    }
    procBoundary0to2
    {
        type            processor;
        inGroups        1(processor);
        nFaces          584;
        startFace       49536;
        matchTolerance  0.0001;
        transform       unknown;
        myProcNo        0;
        neighbProcNo    2;
    }
)

// ************************************************************************* //
