/*--------------------------------*- C++ -*----------------------------------*\
| =========                 |                                                 |
| \\      /  F ield         | OpenFOAM: The Open Source CFD Toolbox           |
|  \\    /   O peration     | Version:  v2012                                 |
|   \\  /    A nd           | Website:  www.openfoam.com                      |
|    \\/     M anipulation  |                                                 |
\*---------------------------------------------------------------------------*/
FoamFile
{
    version     2.0;
    format      ascii;
    class       polyBoundaryMesh;
    location    "constant/polyMesh";
    object      boundary;
}
// * * * * * * * * * * * * * * * * * * * * * * * * * * * * * * * * * * * * * //

8
(
    inlet
    {
        type            patch;
        nFaces          0;
        startFace       144700;
    }
    outlet
    {
        type            patch;
        nFaces          0;
        startFace       144700;
    }
    wall
    {
        type            wall;
        inGroups        1(wall);
        nFaces          2803;
        startFace       144700;
    }
    constraint
    {
        type            symmetry;
        inGroups        1(symmetry);
        nFaces          1669;
        startFace       147503;
    }
    defaultFaces
    {
        type            patch;
        nFaces          6666;
        startFace       149172;
    }
    procBoundary2to0
    {
        type            processor;
        inGroups        1(processor);
        nFaces          1257;
        startFace       155838;
        matchTolerance  0.0001;
        transform       unknown;
        myProcNo        2;
        neighbProcNo    0;
    }
    procBoundary2to1
    {
        type            processor;
        inGroups        1(processor);
        nFaces          403;
        startFace       157095;
        matchTolerance  0.0001;
        transform       unknown;
        myProcNo        2;
        neighbProcNo    1;
    }
    procBoundary2to3
    {
        type            processor;
        inGroups        1(processor);
        nFaces          1190;
        startFace       157498;
        matchTolerance  0.0001;
        transform       unknown;
        myProcNo        2;
        neighbProcNo    3;
    }
)

// ************************************************************************* //
