/*--------------------------------*- C++ -*----------------------------------*\
| =========                 |                                                 |
| \\      /  F ield         | OpenFOAM: The Open Source CFD Toolbox           |
|  \\    /   O peration     | Version:  v2012                                 |
|   \\  /    A nd           | Website:  www.openfoam.com                      |
|    \\/     M anipulation  |                                                 |
\*---------------------------------------------------------------------------*/
FoamFile
{
    version     2.0;
    format      ascii;
    class       polyBoundaryMesh;
    location    "constant/polyMesh";
    object      boundary;
}
// * * * * * * * * * * * * * * * * * * * * * * * * * * * * * * * * * * * * * //

7
(
    inlet
    {
        type            patch;
        nFaces          792;
        startFace       96731;
    }
    outlet
    {
        type            patch;
        nFaces          0;
        startFace       97523;
    }
    wall
    {
        type            wall;
        inGroups        1(wall);
        nFaces          2763;
        startFace       97523;
    }
    constraint
    {
        type            symmetry;
        inGroups        1(symmetry);
        nFaces          1218;
        startFace       100286;
    }
    defaultFaces
    {
        type            patch;
        nFaces          3548;
        startFace       101504;
    }
    procBoundary2to0
    {
        type            processor;
        inGroups        1(processor);
        nFaces          352;
        startFace       105052;
        matchTolerance  0.0001;
        transform       unknown;
        myProcNo        2;
        neighbProcNo    0;
    }
    procBoundary2to3
    {
        type            processor;
        inGroups        1(processor);
        nFaces          1054;
        startFace       105404;
        matchTolerance  0.0001;
        transform       unknown;
        myProcNo        2;
        neighbProcNo    3;
    }
)

// ************************************************************************* //
