/*--------------------------------*- C++ -*----------------------------------*\
| =========                 |                                                 |
| \\      /  F ield         | OpenFOAM: The Open Source CFD Toolbox           |
|  \\    /   O peration     | Version:  v2012                                 |
|   \\  /    A nd           | Website:  www.openfoam.com                      |
|    \\/     M anipulation  |                                                 |
\*---------------------------------------------------------------------------*/
FoamFile
{
    version     2.0;
    format      ascii;
    class       polyBoundaryMesh;
    location    "constant/polyMesh";
    object      boundary;
}
// * * * * * * * * * * * * * * * * * * * * * * * * * * * * * * * * * * * * * //

6
(
    inlet
    {
        type            patch;
        nFaces          0;
        startFace       220384;
    }
    outlet
    {
        type            patch;
        nFaces          1559;
        startFace       220384;
    }
    wall
    {
        type            wall;
        inGroups        1(wall);
        nFaces          5278;
        startFace       221943;
    }
    constraint
    {
        type            symmetry;
        inGroups        1(symmetry);
        nFaces          2860;
        startFace       227221;
    }
    defaultFaces
    {
        type            patch;
        nFaces          0;
        startFace       230081;
    }
    procBoundary0to1
    {
        type            processor;
        inGroups        1(processor);
        nFaces          1845;
        startFace       230081;
        matchTolerance  0.0001;
        transform       unknown;
        myProcNo        0;
        neighbProcNo    1;
    }
)

// ************************************************************************* //
