/*--------------------------------*- C++ -*----------------------------------*\
| =========                 |                                                 |
| \\      /  F ield         | OpenFOAM: The Open Source CFD Toolbox           |
|  \\    /   O peration     | Version:  v2012                                 |
|   \\  /    A nd           | Website:  www.openfoam.com                      |
|    \\/     M anipulation  |                                                 |
\*---------------------------------------------------------------------------*/
FoamFile
{
    version     2.0;
    format      ascii;
    class       polyBoundaryMesh;
    location    "constant/polyMesh";
    object      boundary;
}
// * * * * * * * * * * * * * * * * * * * * * * * * * * * * * * * * * * * * * //

8
(
    inlet
    {
        type            patch;
        nFaces          0;
        startFace       56910;
    }
    outlet
    {
        type            patch;
        nFaces          0;
        startFace       56910;
    }
    wall
    {
        type            wall;
        inGroups        1(wall);
        nFaces          1208;
        startFace       56910;
    }
    constraint
    {
        type            symmetry;
        inGroups        1(symmetry);
        nFaces          846;
        startFace       58118;
    }
    defaultFaces
    {
        type            patch;
        nFaces          3307;
        startFace       58964;
    }
    procBoundary1to0
    {
        type            processor;
        inGroups        1(processor);
        nFaces          608;
        startFace       62271;
        matchTolerance  0.0001;
        transform       unknown;
        myProcNo        1;
        neighbProcNo    0;
    }
    procBoundary1to2
    {
        type            processor;
        inGroups        1(processor);
        nFaces          318;
        startFace       62879;
        matchTolerance  0.0001;
        transform       unknown;
        myProcNo        1;
        neighbProcNo    2;
    }
    procBoundary1to3
    {
        type            processor;
        inGroups        1(processor);
        nFaces          479;
        startFace       63197;
        matchTolerance  0.0001;
        transform       unknown;
        myProcNo        1;
        neighbProcNo    3;
    }
)

// ************************************************************************* //
