/*--------------------------------*- C++ -*----------------------------------*\
| =========                 |                                                 |
| \\      /  F ield         | OpenFOAM: The Open Source CFD Toolbox           |
|  \\    /   O peration     | Version:  v2012                                 |
|   \\  /    A nd           | Website:  www.openfoam.com                      |
|    \\/     M anipulation  |                                                 |
\*---------------------------------------------------------------------------*/
FoamFile
{
    version     2.0;
    format      ascii;
    class       polyBoundaryMesh;
    location    "constant/polyMesh";
    object      boundary;
}
// * * * * * * * * * * * * * * * * * * * * * * * * * * * * * * * * * * * * * //

7
(
    inlet
    {
        type            patch;
        nFaces          780;
        startFace       220385;
    }
    outlet
    {
        type            patch;
        nFaces          0;
        startFace       221165;
    }
    wall
    {
        type            wall;
        inGroups        1(wall);
        nFaces          3127;
        startFace       221165;
    }
    constraint
    {
        type            symmetry;
        inGroups        1(symmetry);
        nFaces          1835;
        startFace       224292;
    }
    defaultFaces
    {
        type            patch;
        nFaces          10325;
        startFace       226127;
    }
    procBoundary2to1
    {
        type            processor;
        inGroups        1(processor);
        nFaces          1276;
        startFace       236452;
        matchTolerance  0.0001;
        transform       unknown;
        myProcNo        2;
        neighbProcNo    1;
    }
    procBoundary2to3
    {
        type            processor;
        inGroups        1(processor);
        nFaces          1862;
        startFace       237728;
        matchTolerance  0.0001;
        transform       unknown;
        myProcNo        2;
        neighbProcNo    3;
    }
)

// ************************************************************************* //
