/*--------------------------------*- C++ -*----------------------------------*\
| =========                 |                                                 |
| \\      /  F ield         | OpenFOAM: The Open Source CFD Toolbox           |
|  \\    /   O peration     | Version:  v2012                                 |
|   \\  /    A nd           | Website:  www.openfoam.com                      |
|    \\/     M anipulation  |                                                 |
\*---------------------------------------------------------------------------*/
FoamFile
{
    version     2.0;
    format      ascii;
    class       polyBoundaryMesh;
    location    "constant/polyMesh";
    object      boundary;
}
// * * * * * * * * * * * * * * * * * * * * * * * * * * * * * * * * * * * * * //

8
(
    inlet
    {
        type            patch;
        nFaces          0;
        startFace       43345;
    }
    outlet
    {
        type            patch;
        nFaces          0;
        startFace       43345;
    }
    wall
    {
        type            wall;
        inGroups        1(wall);
        nFaces          934;
        startFace       43345;
    }
    constraint
    {
        type            symmetry;
        inGroups        1(symmetry);
        nFaces          633;
        startFace       44279;
    }
    defaultFaces
    {
        type            patch;
        nFaces          2886;
        startFace       44912;
    }
    procBoundary2to0
    {
        type            processor;
        inGroups        1(processor);
        nFaces          584;
        startFace       47798;
        matchTolerance  0.0001;
        transform       unknown;
        myProcNo        2;
        neighbProcNo    0;
    }
    procBoundary2to1
    {
        type            processor;
        inGroups        1(processor);
        nFaces          312;
        startFace       48382;
        matchTolerance  0.0001;
        transform       unknown;
        myProcNo        2;
        neighbProcNo    1;
    }
    procBoundary2to3
    {
        type            processor;
        inGroups        1(processor);
        nFaces          476;
        startFace       48694;
        matchTolerance  0.0001;
        transform       unknown;
        myProcNo        2;
        neighbProcNo    3;
    }
)

// ************************************************************************* //
