/*--------------------------------*- C++ -*----------------------------------*\
| =========                 |                                                 |
| \\      /  F ield         | OpenFOAM: The Open Source CFD Toolbox           |
|  \\    /   O peration     | Version:  v2012                                 |
|   \\  /    A nd           | Website:  www.openfoam.com                      |
|    \\/     M anipulation  |                                                 |
\*---------------------------------------------------------------------------*/
FoamFile
{
    version     2.0;
    format      ascii;
    class       polyBoundaryMesh;
    location    "constant/polyMesh";
    object      boundary;
}
// * * * * * * * * * * * * * * * * * * * * * * * * * * * * * * * * * * * * * //

7
(
    inlet
    {
        type            patch;
        nFaces          448;
        startFace       43072;
    }
    outlet
    {
        type            patch;
        nFaces          0;
        startFace       43520;
    }
    wall
    {
        type            wall;
        inGroups        1(wall);
        nFaces          1305;
        startFace       43520;
    }
    constraint
    {
        type            symmetry;
        inGroups        1(symmetry);
        nFaces          857;
        startFace       44825;
    }
    defaultFaces
    {
        type            patch;
        nFaces          1600;
        startFace       45682;
    }
    procBoundary1to0
    {
        type            processor;
        inGroups        1(processor);
        nFaces          735;
        startFace       47282;
        matchTolerance  0.0001;
        transform       unknown;
        myProcNo        1;
        neighbProcNo    0;
    }
    procBoundary1to2
    {
        type            processor;
        inGroups        1(processor);
        nFaces          312;
        startFace       48017;
        matchTolerance  0.0001;
        transform       unknown;
        myProcNo        1;
        neighbProcNo    2;
    }
)

// ************************************************************************* //
