/*--------------------------------*- C++ -*----------------------------------*\
| =========                 |                                                 |
| \\      /  F ield         | OpenFOAM: The Open Source CFD Toolbox           |
|  \\    /   O peration     | Version:  v2012                                 |
|   \\  /    A nd           | Website:  www.openfoam.com                      |
|    \\/     M anipulation  |                                                 |
\*---------------------------------------------------------------------------*/
FoamFile
{
    version     2.0;
    format      ascii;
    class       polyBoundaryMesh;
    location    "constant/polyMesh";
    object      boundary;
}
// * * * * * * * * * * * * * * * * * * * * * * * * * * * * * * * * * * * * * //

8
(
    inlet
    {
        type            patch;
        nFaces          0;
        startFace       97295;
    }
    outlet
    {
        type            patch;
        nFaces          0;
        startFace       97295;
    }
    wall
    {
        type            wall;
        inGroups        1(wall);
        nFaces          2070;
        startFace       97295;
    }
    constraint
    {
        type            symmetry;
        inGroups        1(symmetry);
        nFaces          969;
        startFace       99365;
    }
    defaultFaces
    {
        type            patch;
        nFaces          5385;
        startFace       100334;
    }
    procBoundary0to1
    {
        type            processor;
        inGroups        1(processor);
        nFaces          846;
        startFace       105719;
        matchTolerance  0.0001;
        transform       unknown;
        myProcNo        0;
        neighbProcNo    1;
    }
    procBoundary0to2
    {
        type            processor;
        inGroups        1(processor);
        nFaces          352;
        startFace       106565;
        matchTolerance  0.0001;
        transform       unknown;
        myProcNo        0;
        neighbProcNo    2;
    }
    procBoundary0to3
    {
        type            processor;
        inGroups        1(processor);
        nFaces          1119;
        startFace       106917;
        matchTolerance  0.0001;
        transform       unknown;
        myProcNo        0;
        neighbProcNo    3;
    }
)

// ************************************************************************* //
