/*--------------------------------*- C++ -*----------------------------------*\
| =========                 |                                                 |
| \\      /  F ield         | OpenFOAM: The Open Source CFD Toolbox           |
|  \\    /   O peration     | Version:  v2012                                 |
|   \\  /    A nd           | Website:  www.openfoam.com                      |
|    \\/     M anipulation  |                                                 |
\*---------------------------------------------------------------------------*/
FoamFile
{
    version     2.0;
    format      ascii;
    class       polyBoundaryMesh;
    location    "constant/polyMesh";
    object      boundary;
}
// * * * * * * * * * * * * * * * * * * * * * * * * * * * * * * * * * * * * * //

8
(
    inlet
    {
        type            patch;
        nFaces          0;
        startFace       221674;
    }
    outlet
    {
        type            patch;
        nFaces          0;
        startFace       221674;
    }
    wall
    {
        type            wall;
        inGroups        1(wall);
        nFaces          4143;
        startFace       221674;
    }
    constraint
    {
        type            symmetry;
        inGroups        1(symmetry);
        nFaces          1992;
        startFace       225817;
    }
    defaultFaces
    {
        type            patch;
        nFaces          7272;
        startFace       227809;
    }
    procBoundary1to0
    {
        type            processor;
        inGroups        1(processor);
        nFaces          1845;
        startFace       235081;
        matchTolerance  0.0001;
        transform       unknown;
        myProcNo        1;
        neighbProcNo    0;
    }
    procBoundary1to2
    {
        type            processor;
        inGroups        1(processor);
        nFaces          1276;
        startFace       236926;
        matchTolerance  0.0001;
        transform       unknown;
        myProcNo        1;
        neighbProcNo    2;
    }
    procBoundary1to3
    {
        type            processor;
        inGroups        1(processor);
        nFaces          826;
        startFace       238202;
        matchTolerance  0.0001;
        transform       unknown;
        myProcNo        1;
        neighbProcNo    3;
    }
)

// ************************************************************************* //
