/*--------------------------------*- C++ -*----------------------------------*\
| =========                 |                                                 |
| \\      /  F ield         | OpenFOAM: The Open Source CFD Toolbox           |
|  \\    /   O peration     | Version:  v2012                                 |
|   \\  /    A nd           | Website:  www.openfoam.com                      |
|    \\/     M anipulation  |                                                 |
\*---------------------------------------------------------------------------*/
FoamFile
{
    version     2.0;
    format      ascii;
    class       polyBoundaryMesh;
    location    "constant/polyMesh";
    object      boundary;
}
// * * * * * * * * * * * * * * * * * * * * * * * * * * * * * * * * * * * * * //

5
(
    inlet
    {
        type            patch;
        nFaces          360;
        startFace       136465;
    }
    outlet
    {
        type            patch;
        nFaces          360;
        startFace       136825;
    }
    wall
    {
        type            wall;
        inGroups        1(wall);
        nFaces          4085;
        startFace       137185;
    }
    constraint
    {
        type            symmetry;
        inGroups        1(symmetry);
        nFaces          2590;
        startFace       141270;
    }
    defaultFaces
    {
        type            patch;
        nFaces          7172;
        startFace       143860;
    }
)

// ************************************************************************* //
