/*--------------------------------*- C++ -*----------------------------------*\
| =========                 |                                                 |
| \\      /  F ield         | OpenFOAM: The Open Source CFD Toolbox           |
|  \\    /   O peration     | Version:  v2012                                 |
|   \\  /    A nd           | Website:  www.openfoam.com                      |
|    \\/     M anipulation  |                                                 |
\*---------------------------------------------------------------------------*/
FoamFile
{
    version     2.0;
    format      ascii;
    class       polyBoundaryMesh;
    location    "constant/polyMesh";
    object      boundary;
}
// * * * * * * * * * * * * * * * * * * * * * * * * * * * * * * * * * * * * * //

8
(
    inlet
    {
        type            patch;
        nFaces          0;
        startFace       355749;
    }
    outlet
    {
        type            patch;
        nFaces          0;
        startFace       355749;
    }
    wall
    {
        type            wall;
        inGroups        1(wall);
        nFaces          5899;
        startFace       355749;
    }
    constraint
    {
        type            symmetry;
        inGroups        1(symmetry);
        nFaces          3188;
        startFace       361648;
    }
    defaultFaces
    {
        type            patch;
        nFaces          8620;
        startFace       364836;
    }
    procBoundary0to1
    {
        type            processor;
        inGroups        1(processor);
        nFaces          2623;
        startFace       373456;
        matchTolerance  0.0001;
        transform       unknown;
        myProcNo        0;
        neighbProcNo    1;
    }
    procBoundary0to2
    {
        type            processor;
        inGroups        1(processor);
        nFaces          1209;
        startFace       376079;
        matchTolerance  0.0001;
        transform       unknown;
        myProcNo        0;
        neighbProcNo    2;
    }
    procBoundary0to3
    {
        type            processor;
        inGroups        1(processor);
        nFaces          2295;
        startFace       377288;
        matchTolerance  0.0001;
        transform       unknown;
        myProcNo        0;
        neighbProcNo    3;
    }
)

// ************************************************************************* //
