/*--------------------------------*- C++ -*----------------------------------*\
| =========                 |                                                 |
| \\      /  F ield         | OpenFOAM: The Open Source CFD Toolbox           |
|  \\    /   O peration     | Version:  v2012                                 |
|   \\  /    A nd           | Website:  www.openfoam.com                      |
|    \\/     M anipulation  |                                                 |
\*---------------------------------------------------------------------------*/
FoamFile
{
    version     2.0;
    format      ascii;
    class       polyBoundaryMesh;
    location    "constant/polyMesh";
    object      boundary;
}
// * * * * * * * * * * * * * * * * * * * * * * * * * * * * * * * * * * * * * //

8
(
    inlet
    {
        type            patch;
        nFaces          0;
        startFace       71947;
    }
    outlet
    {
        type            patch;
        nFaces          0;
        startFace       71947;
    }
    wall
    {
        type            wall;
        inGroups        1(wall);
        nFaces          1707;
        startFace       71947;
    }
    constraint
    {
        type            symmetry;
        inGroups        1(symmetry);
        nFaces          756;
        startFace       73654;
    }
    defaultFaces
    {
        type            patch;
        nFaces          4243;
        startFace       74410;
    }
    procBoundary0to1
    {
        type            processor;
        inGroups        1(processor);
        nFaces          704;
        startFace       78653;
        matchTolerance  0.0001;
        transform       unknown;
        myProcNo        0;
        neighbProcNo    1;
    }
    procBoundary0to2
    {
        type            processor;
        inGroups        1(processor);
        nFaces          427;
        startFace       79357;
        matchTolerance  0.0001;
        transform       unknown;
        myProcNo        0;
        neighbProcNo    2;
    }
    procBoundary0to3
    {
        type            processor;
        inGroups        1(processor);
        nFaces          868;
        startFace       79784;
        matchTolerance  0.0001;
        transform       unknown;
        myProcNo        0;
        neighbProcNo    3;
    }
)

// ************************************************************************* //
