/*--------------------------------*- C++ -*----------------------------------*\
| =========                 |                                                 |
| \\      /  F ield         | OpenFOAM: The Open Source CFD Toolbox           |
|  \\    /   O peration     | Version:  v2012                                 |
|   \\  /    A nd           | Website:  www.openfoam.com                      |
|    \\/     M anipulation  |                                                 |
\*---------------------------------------------------------------------------*/
FoamFile
{
    version     2.0;
    format      ascii;
    class       polyBoundaryMesh;
    location    "constant/polyMesh";
    object      boundary;
}
// * * * * * * * * * * * * * * * * * * * * * * * * * * * * * * * * * * * * * //

6
(
    inlet
    {
        type            patch;
        nFaces          0;
        startFace       355957;
    }
    outlet
    {
        type            patch;
        nFaces          2160;
        startFace       355957;
    }
    wall
    {
        type            wall;
        inGroups        1(wall);
        nFaces          7266;
        startFace       358117;
    }
    constraint
    {
        type            symmetry;
        inGroups        1(symmetry);
        nFaces          4131;
        startFace       365383;
    }
    defaultFaces
    {
        type            patch;
        nFaces          0;
        startFace       369514;
    }
    procBoundary1to0
    {
        type            processor;
        inGroups        1(processor);
        nFaces          2623;
        startFace       369514;
        matchTolerance  0.0001;
        transform       unknown;
        myProcNo        1;
        neighbProcNo    0;
    }
)

// ************************************************************************* //
