/*--------------------------------*- C++ -*----------------------------------*\
| =========                 |                                                 |
| \\      /  F ield         | OpenFOAM: The Open Source CFD Toolbox           |
|  \\    /   O peration     | Version:  v2012                                 |
|   \\  /    A nd           | Website:  www.openfoam.com                      |
|    \\/     M anipulation  |                                                 |
\*---------------------------------------------------------------------------*/
FoamFile
{
    version     2.0;
    format      ascii;
    class       polyBoundaryMesh;
    location    "constant/polyMesh";
    object      boundary;
}
// * * * * * * * * * * * * * * * * * * * * * * * * * * * * * * * * * * * * * //

7
(
    inlet
    {
        type            patch;
        nFaces          2160;
        startFace       354864;
    }
    outlet
    {
        type            patch;
        nFaces          0;
        startFace       357024;
    }
    wall
    {
        type            wall;
        inGroups        1(wall);
        nFaces          6254;
        startFace       357024;
    }
    constraint
    {
        type            symmetry;
        inGroups        1(symmetry);
        nFaces          3352;
        startFace       363278;
    }
    defaultFaces
    {
        type            patch;
        nFaces          6794;
        startFace       366630;
    }
    procBoundary2to0
    {
        type            processor;
        inGroups        1(processor);
        nFaces          1209;
        startFace       373424;
        matchTolerance  0.0001;
        transform       unknown;
        myProcNo        2;
        neighbProcNo    0;
    }
    procBoundary2to3
    {
        type            processor;
        inGroups        1(processor);
        nFaces          3097;
        startFace       374633;
        matchTolerance  0.0001;
        transform       unknown;
        myProcNo        2;
        neighbProcNo    3;
    }
)

// ************************************************************************* //
