/*--------------------------------*- C++ -*----------------------------------*\
| =========                 |                                                 |
| \\      /  F ield         | OpenFOAM: The Open Source CFD Toolbox           |
|  \\    /   O peration     | Version:  v2012                                 |
|   \\  /    A nd           | Website:  www.openfoam.com                      |
|    \\/     M anipulation  |                                                 |
\*---------------------------------------------------------------------------*/
FoamFile
{
    version     2.0;
    format      ascii;
    class       polyBoundaryMesh;
    location    "constant/polyMesh";
    object      boundary;
}
// * * * * * * * * * * * * * * * * * * * * * * * * * * * * * * * * * * * * * //

7
(
    inlet
    {
        type            patch;
        nFaces          0;
        startFace       33478;
    }
    outlet
    {
        type            patch;
        nFaces          360;
        startFace       33478;
    }
    wall
    {
        type            wall;
        inGroups        1(wall);
        nFaces          1787;
        startFace       33838;
    }
    constraint
    {
        type            symmetry;
        inGroups        1(symmetry);
        nFaces          961;
        startFace       35625;
    }
    defaultFaces
    {
        type            patch;
        nFaces          0;
        startFace       36586;
    }
    procBoundary0to1
    {
        type            processor;
        inGroups        1(processor);
        nFaces          327;
        startFace       36586;
        matchTolerance  0.0001;
        transform       unknown;
        myProcNo        0;
        neighbProcNo    1;
    }
    procBoundary0to3
    {
        type            processor;
        inGroups        1(processor);
        nFaces          121;
        startFace       36913;
        matchTolerance  0.0001;
        transform       unknown;
        myProcNo        0;
        neighbProcNo    3;
    }
)

// ************************************************************************* //
