/*--------------------------------*- C++ -*----------------------------------*\
| =========                 |                                                 |
| \\      /  F ield         | OpenFOAM: The Open Source CFD Toolbox           |
|  \\    /   O peration     | Version:  v2012                                 |
|   \\  /    A nd           | Website:  www.openfoam.com                      |
|    \\/     M anipulation  |                                                 |
\*---------------------------------------------------------------------------*/
FoamFile
{
    version     2.0;
    format      ascii;
    class       polyBoundaryMesh;
    location    "constant/polyMesh";
    object      boundary;
}
// * * * * * * * * * * * * * * * * * * * * * * * * * * * * * * * * * * * * * //

5
(
    inlet
    {
        type            patch;
        nFaces          2160;
        startFace       1431574;
    }
    outlet
    {
        type            patch;
        nFaces          2160;
        startFace       1433734;
    }
    wall
    {
        type            wall;
        inGroups        1(wall);
        nFaces          22937;
        startFace       1435894;
    }
    constraint
    {
        type            symmetry;
        inGroups        1(symmetry);
        nFaces          11451;
        startFace       1458831;
    }
    defaultFaces
    {
        type            patch;
        nFaces          42810;
        startFace       1470282;
    }
)

// ************************************************************************* //
