/*--------------------------------*- C++ -*----------------------------------*\
| =========                 |                                                 |
| \\      /  F ield         | OpenFOAM: The Open Source CFD Toolbox           |
|  \\    /   O peration     | Version:  v2012                                 |
|   \\  /    A nd           | Website:  www.openfoam.com                      |
|    \\/     M anipulation  |                                                 |
\*---------------------------------------------------------------------------*/
FoamFile
{
    version     2.0;
    format      ascii;
    class       polyBoundaryMesh;
    location    "constant/polyMesh";
    object      boundary;
}
// * * * * * * * * * * * * * * * * * * * * * * * * * * * * * * * * * * * * * //

6
(
    inlet
    {
        type            patch;
        nFaces          0;
        startFace       683393;
    }
    outlet
    {
        type            patch;
        nFaces          3420;
        startFace       683393;
    }
    wall
    {
        type            wall;
        inGroups        1(wall);
        nFaces          11125;
        startFace       686813;
    }
    constraint
    {
        type            symmetry;
        inGroups        1(symmetry);
        nFaces          6140;
        startFace       697938;
    }
    defaultFaces
    {
        type            patch;
        nFaces          0;
        startFace       704078;
    }
    procBoundary2to3
    {
        type            processor;
        inGroups        1(processor);
        nFaces          3809;
        startFace       704078;
        matchTolerance  0.0001;
        transform       unknown;
        myProcNo        2;
        neighbProcNo    3;
    }
)

// ************************************************************************* //
