/*--------------------------------*- C++ -*----------------------------------*\
| =========                 |                                                 |
| \\      /  F ield         | OpenFOAM: The Open Source CFD Toolbox           |
|  \\    /   O peration     | Version:  v2012                                 |
|   \\  /    A nd           | Website:  www.openfoam.com                      |
|    \\/     M anipulation  |                                                 |
\*---------------------------------------------------------------------------*/
FoamFile
{
    version     2.0;
    format      ascii;
    class       polyBoundaryMesh;
    location    "constant/polyMesh";
    object      boundary;
}
// * * * * * * * * * * * * * * * * * * * * * * * * * * * * * * * * * * * * * //

7
(
    inlet
    {
        type            patch;
        nFaces          0;
        startFace       96808;
    }
    outlet
    {
        type            patch;
        nFaces          0;
        startFace       96808;
    }
    wall
    {
        type            wall;
        inGroups        1(wall);
        nFaces          801;
        startFace       96808;
    }
    constraint
    {
        type            symmetry;
        inGroups        1(symmetry);
        nFaces          1048;
        startFace       97609;
    }
    defaultFaces
    {
        type            patch;
        nFaces          7697;
        startFace       98657;
    }
    procBoundary3to0
    {
        type            processor;
        inGroups        1(processor);
        nFaces          1119;
        startFace       106354;
        matchTolerance  0.0001;
        transform       unknown;
        myProcNo        3;
        neighbProcNo    0;
    }
    procBoundary3to2
    {
        type            processor;
        inGroups        1(processor);
        nFaces          1054;
        startFace       107473;
        matchTolerance  0.0001;
        transform       unknown;
        myProcNo        3;
        neighbProcNo    2;
    }
)

// ************************************************************************* //
