/*--------------------------------*- C++ -*----------------------------------*\
| =========                 |                                                 |
| \\      /  F ield         | OpenFOAM: The Open Source CFD Toolbox           |
|  \\    /   O peration     | Version:  v2012                                 |
|   \\  /    A nd           | Website:  www.openfoam.com                      |
|    \\/     M anipulation  |                                                 |
\*---------------------------------------------------------------------------*/
FoamFile
{
    version     2.0;
    format      ascii;
    class       polyBoundaryMesh;
    location    "constant/polyMesh";
    object      boundary;
}
// * * * * * * * * * * * * * * * * * * * * * * * * * * * * * * * * * * * * * //

7
(
    inlet
    {
        type            patch;
        nFaces          0;
        startFace       671561;
    }
    outlet
    {
        type            patch;
        nFaces          0;
        startFace       671561;
    }
    wall
    {
        type            wall;
        inGroups        1(wall);
        nFaces          5917;
        startFace       671561;
    }
    constraint
    {
        type            symmetry;
        inGroups        1(symmetry);
        nFaces          1826;
        startFace       677478;
    }
    defaultFaces
    {
        type            patch;
        nFaces          44362;
        startFace       679304;
    }
    procBoundary1to0
    {
        type            processor;
        inGroups        1(processor);
        nFaces          5177;
        startFace       723666;
        matchTolerance  0.0001;
        transform       unknown;
        myProcNo        1;
        neighbProcNo    0;
    }
    procBoundary1to3
    {
        type            processor;
        inGroups        1(processor);
        nFaces          3476;
        startFace       728843;
        matchTolerance  0.0001;
        transform       unknown;
        myProcNo        1;
        neighbProcNo    3;
    }
)

// ************************************************************************* //
