/*--------------------------------*- C++ -*----------------------------------*\
| =========                 |                                                 |
| \\      /  F ield         | OpenFOAM: The Open Source CFD Toolbox           |
|  \\    /   O peration     | Version:  v2012                                 |
|   \\  /    A nd           | Website:  www.openfoam.com                      |
|    \\/     M anipulation  |                                                 |
\*---------------------------------------------------------------------------*/
FoamFile
{
    version     2.0;
    format      ascii;
    class       polyBoundaryMesh;
    location    "constant/polyMesh";
    object      boundary;
}
// * * * * * * * * * * * * * * * * * * * * * * * * * * * * * * * * * * * * * //

6
(
    inlet
    {
        type            patch;
        nFaces          0;
        startFace       144070;
    }
    outlet
    {
        type            patch;
        nFaces          1100;
        startFace       144070;
    }
    wall
    {
        type            wall;
        inGroups        1(wall);
        nFaces          4183;
        startFace       145170;
    }
    constraint
    {
        type            symmetry;
        inGroups        1(symmetry);
        nFaces          2249;
        startFace       149353;
    }
    defaultFaces
    {
        type            patch;
        nFaces          0;
        startFace       151602;
    }
    procBoundary3to2
    {
        type            processor;
        inGroups        1(processor);
        nFaces          1190;
        startFace       151602;
        matchTolerance  0.0001;
        transform       unknown;
        myProcNo        3;
        neighbProcNo    2;
    }
)

// ************************************************************************* //
