/*--------------------------------*- C++ -*----------------------------------*\
| =========                 |                                                 |
| \\      /  F ield         | OpenFOAM: The Open Source CFD Toolbox           |
|  \\    /   O peration     | Version:  v2012                                 |
|   \\  /    A nd           | Website:  www.openfoam.com                      |
|    \\/     M anipulation  |                                                 |
\*---------------------------------------------------------------------------*/
FoamFile
{
    version     2.0;
    format      ascii;
    class       polyBoundaryMesh;
    location    "constant/polyMesh";
    object      boundary;
}
// * * * * * * * * * * * * * * * * * * * * * * * * * * * * * * * * * * * * * //

6
(
    inlet
    {
        type            patch;
        nFaces          0;
        startFace       43465;
    }
    outlet
    {
        type            patch;
        nFaces          448;
        startFace       43465;
    }
    wall
    {
        type            wall;
        inGroups        1(wall);
        nFaces          2035;
        startFace       43913;
    }
    constraint
    {
        type            symmetry;
        inGroups        1(symmetry);
        nFaces          1083;
        startFace       45948;
    }
    defaultFaces
    {
        type            patch;
        nFaces          0;
        startFace       47031;
    }
    procBoundary3to2
    {
        type            processor;
        inGroups        1(processor);
        nFaces          476;
        startFace       47031;
        matchTolerance  0.0001;
        transform       unknown;
        myProcNo        3;
        neighbProcNo    2;
    }
)

// ************************************************************************* //
