/*--------------------------------*- C++ -*----------------------------------*\
| =========                 |                                                 |
| \\      /  F ield         | OpenFOAM: The Open Source CFD Toolbox           |
|  \\    /   O peration     | Version:  v2012                                 |
|   \\  /    A nd           | Website:  www.openfoam.com                      |
|    \\/     M anipulation  |                                                 |
\*---------------------------------------------------------------------------*/
FoamFile
{
    version     2.0;
    format      ascii;
    class       polyBoundaryMesh;
    location    "constant/polyMesh";
    object      boundary;
}
// * * * * * * * * * * * * * * * * * * * * * * * * * * * * * * * * * * * * * //

7
(
    inlet
    {
        type            patch;
        nFaces          3420;
        startFace       677134;
    }
    outlet
    {
        type            patch;
        nFaces          0;
        startFace       680554;
    }
    wall
    {
        type            wall;
        inGroups        1(wall);
        nFaces          9692;
        startFace       680554;
    }
    constraint
    {
        type            symmetry;
        inGroups        1(symmetry);
        nFaces          5127;
        startFace       690246;
    }
    defaultFaces
    {
        type            patch;
        nFaces          11758;
        startFace       695373;
    }
    procBoundary0to1
    {
        type            processor;
        inGroups        1(processor);
        nFaces          5177;
        startFace       707131;
        matchTolerance  0.0001;
        transform       unknown;
        myProcNo        0;
        neighbProcNo    1;
    }
    procBoundary0to3
    {
        type            processor;
        inGroups        1(processor);
        nFaces          1795;
        startFace       712308;
        matchTolerance  0.0001;
        transform       unknown;
        myProcNo        0;
        neighbProcNo    3;
    }
)

// ************************************************************************* //
